**************************************
*      Model Generated by MODPEX     *
*Copyright(c) Symmetry Design Systems*
*         All Rights Reserved        *
*    UNPUBLISHED LICENSED SOFTWARE   *
*   Contains Proprietary Information *
*      Which is The Property of      *
*     SYMMETRY OR ITS LICENSORS      *
*Commercial Use or Resale Restricted *
*   by Symmetry License Agreement    *
**************************************
* Model generated on Jul 27, 11
* MODEL FORMAT: PSpice
.MODEL Dbas16lt1g d
+IS=1.28771e-09 RS=1.12591 N=1.7545 EG=1.07278
+XTI=5 BV=122.915 IBV=0.0908337 CJO=6.06355e-13
+VJ=0.995702 M=0.088819 FC=0.5 TT=5.13138e-09
+KF=0 AF=1

