**************************************
*      Model Generated by MODPEX     *
*Copyright(c) Symmetry Design Systems*
*         All Rights Reserved        *
*    UNPUBLISHED LICENSED SOFTWARE   *
*   Contains Proprietary Information *
*      Which is The Property of      *
*     SYMMETRY OR ITS LICENSORS      *
*Commercial Use or Resale Restricted *
*   by Symmetry License Agreement    *
**************************************
* Model generated on May 28, 08
* MODEL FORMAT: PSpice
.MODEL Qmmbt3906lt1 pnp
+IS=8.10417e-16 BF=1000 NF=0.997564 VAF=10
+IKF=0.0845798 ISE=3.95828e-15 NE=1.34369 BR=100
+NR=0.918771 VAR=1.28138 IKR=0.845798 ISC=3.95828e-15
+NC=3.99999 RB=0.1 IRB=0.1 RBM=0.1
+RE=0.0001 RC=1.07833 XTB=0.1 XTI=1
+EG=1.05 CJE=5.90332e-12 VJE=0.489541 MJE=0.233176
+TF=4.65245e-10 XTF=0.996431 VTF=9.95238 ITF=0.0100425
+CJC=6.27116e-12 VJC=0.509649 MJC=0.236039 XCJC=0.9
+FC=0.499933 CJS=0 VJS=0.75 MJS=0.5
+TR=4.39203e-09 PTF=0 KF=0 AF=1


